177

V   -9.76 0 0
V   -7.32 -2.44 -2.44
V   -7.32 -2.44 0
V   -7.32 -2.44 2.44
V   -7.32 0 -2.44
V   -7.32 0 0
V   -7.32 0 2.44
V   -7.32 2.44 -2.44
V   -7.32 2.44 0
V   -7.32 2.44 2.44
V   -4.88 -4.88 -2.44
V   -4.88 -4.88 0
V   -4.88 -4.88 2.44
V   -4.88 -2.44 -4.88
V   -4.88 -2.44 -2.44
V   -4.88 -2.44 0
V   -4.88 -2.44 2.44
V   -4.88 -2.44 4.88
V   -4.88 0 -4.88
V   -4.88 0 -2.44
V   -4.88 0 0
V   -4.88 0 2.44
V   -4.88 0 4.88
V   -4.88 2.44 -4.88
V   -4.88 2.44 -2.44
V   -4.88 2.44 0
V   -4.88 2.44 2.44
V   -4.88 2.44 4.88
V   -4.88 4.88 -2.44
V   -4.88 4.88 0
V   -4.88 4.88 2.44
V   -2.44 -7.32 -2.44
V   -2.44 -7.32 0
V   -2.44 -7.32 2.44
V   -2.44 -4.88 -4.88
V   -2.44 -4.88 -2.44
V   -2.44 -4.88 0
V   -2.44 -4.88 2.44
V   -2.44 -4.88 4.88
V   -2.44 -2.44 -7.32
V   -2.44 -2.44 -4.88
V   -2.44 -2.44 -2.44
V   -2.44 -2.44 0
V   -2.44 -2.44 2.44
V   -2.44 -2.44 4.88
V   -2.44 -2.44 7.32
V   -2.44 0 -7.32
V   -2.44 0 -4.88
V   -2.44 0 -2.44
V   -2.44 0 0
V   -2.44 0 2.44
V   -2.44 0 4.88
V   -2.44 0 7.32
V   -2.44 2.44 -7.32
V   -2.44 2.44 -4.88
V   -2.44 2.44 -2.44
V   -2.44 2.44 0
V   -2.44 2.44 2.44
V   -2.44 2.44 4.88
V   -2.44 2.44 7.32
V   -2.44 4.88 -4.88
V   -2.44 4.88 -2.44
V   -2.44 4.88 0
V   -2.44 4.88 2.44
V   -2.44 4.88 4.88
V   -2.44 7.32 -2.44
V   -2.44 7.32 0
V   -2.44 7.32 2.44
V   0 -9.76 0
V   0 -7.32 -2.44
V   0 -7.32 0
V   0 -7.32 2.44
V   0 -4.88 -4.88
V   0 -4.88 -2.44
V   0 -4.88 0
V   0 -4.88 2.44
V   0 -4.88 4.88
V   0 -2.44 -7.32
V   0 -2.44 -4.88
V   0 -2.44 -2.44
V   0 -2.44 0
V   0 -2.44 2.44
V   0 -2.44 4.88
V   0 -2.44 7.32
V   0 0 -9.76
V   0 0 -7.32
V   0 0 -4.88
V   0 0 -2.44
V   0 0 0
V   0 0 2.44
V   0 0 4.88
V   0 0 7.32
V   0 0 9.76
V   0 2.44 -7.32
V   0 2.44 -4.88
V   0 2.44 -2.44
V   0 2.44 0
V   0 2.44 2.44
V   0 2.44 4.88
V   0 2.44 7.32
V   0 4.88 -4.88
V   0 4.88 -2.44
V   0 4.88 0
V   0 4.88 2.44
V   0 4.88 4.88
V   0 7.32 -2.44
V   0 7.32 0
V   0 7.32 2.44
V   0 9.76 0
V   2.44 -7.32 -2.44
V   2.44 -7.32 0
V   2.44 -7.32 2.44
V   2.44 -4.88 -4.88
V   2.44 -4.88 -2.44
V   2.44 -4.88 0
V   2.44 -4.88 2.44
V   2.44 -4.88 4.88
V   2.44 -2.44 -7.32
V   2.44 -2.44 -4.88
V   2.44 -2.44 -2.44
V   2.44 -2.44 0
V   2.44 -2.44 2.44
V   2.44 -2.44 4.88
V   2.44 -2.44 7.32
V   2.44 0 -7.32
V   2.44 0 -4.88
V   2.44 0 -2.44
V   2.44 0 0
V   2.44 0 2.44
V   2.44 0 4.88
V   2.44 0 7.32
V   2.44 2.44 -7.32
V   2.44 2.44 -4.88
V   2.44 2.44 -2.44
V   2.44 2.44 0
V   2.44 2.44 2.44
V   2.44 2.44 4.88
V   2.44 2.44 7.32
V   2.44 4.88 -4.88
V   2.44 4.88 -2.44
V   2.44 4.88 0
V   2.44 4.88 2.44
V   2.44 4.88 4.88
V   2.44 7.32 -2.44
V   2.44 7.32 0
V   2.44 7.32 2.44
V   4.88 -4.88 -2.44
V   4.88 -4.88 0
V   4.88 -4.88 2.44
V   4.88 -2.44 -4.88
V   4.88 -2.44 -2.44
V   4.88 -2.44 0
V   4.88 -2.44 2.44
V   4.88 -2.44 4.88
V   4.88 0 -4.88
V   4.88 0 -2.44
V   4.88 0 0
V   4.88 0 2.44
V   4.88 0 4.88
V   4.88 2.44 -4.88
V   4.88 2.44 -2.44
V   4.88 2.44 0
V   4.88 2.44 2.44
V   4.88 2.44 4.88
V   4.88 4.88 -2.44
V   4.88 4.88 0
V   4.88 4.88 2.44
V   7.32 -2.44 -2.44
V   7.32 -2.44 0
V   7.32 -2.44 2.44
V   7.32 0 -2.44
V   7.32 0 0
V   7.32 0 2.44
V   7.32 2.44 -2.44
V   7.32 2.44 0
V   7.32 2.44 2.44
V   9.76 0 0
